api/pglib_opf_case2742_goc__api.m
%%%%%%%%%%%%%%%%%%%%%%%%%%%%%%%%%%%%%%%%%%%%%%%%%%%%%%%%%%%%%%%%%%%%%%%%%%%
%%%%                                                                  %%%%%
%%%%    IEEE PES Power Grid Library - Optimal Power Flow - v20.04     %%%%%
%%%%          (https://github.com/power-grid-lib/pglib-opf)           %%%%%
%%%%             Benchmark Group - Active Power Increase              %%%%%
%%%%                         12 - July - 2020                         %%%%%
%%%%                                                                  %%%%%
%%%%%%%%%%%%%%%%%%%%%%%%%%%%%%%%%%%%%%%%%%%%%%%%%%%%%%%%%%%%%%%%%%%%%%%%%%%
function mpc = pglib_opf_case2742_goc__api
mpc.version = '2';
mpc.baseMVA = 100.0;

%% bus data
%	bus_i	type	Pd	Qd	Gs	Bs	area	Vm	Va	baseKV	zone	Vmax	Vmin
mpc.bus = [
	35250	 3	 0.0	 0.0	 0.0	 0.0	 1	    1.00000	    0.00000	 500.0	 1	    1.10000	    0.90000;
	35251	 2	 0.0	 0.0	 0.0	 0.0	 1	    1.00000	    0.00000	 500.0	 1	    1.10000	    0.90000;
	35252	 2	 0.0	 0.0	 0.0	 0.0	 1	    1.00000	    0.00000	 500.0	 1	    1.10000	    0.90000;
	35253	 1	 0.0	 0.0	 0.0	 0.0	 1	    1.00000	    0.00000	 500.0	 1	    1.10000	    0.90000;
	35254	 2	 0.0	 0.0	 0.0	 0.0	 1	    1.00000	    0.00000	 500.0	 1	    1.10000	    0.90000;
	35255	 2	 0.0	 0.0	 0.0	 0.0	 1	    1.00000	    0.00000	 500.0	 1	    1.10000	    0.90000;
	35256	 1	 0.0	 0.0	 0.0	 0.0	 1	    1.00000	    0.00000	 500.0	 1	    1.10000	    0.90000;
	35257	 2	 0.0	 0.0	 0.0	 0.0	 1	    1.00000	    0.00000	 500.0	 1	    1.10000	    0.90000;
	35258	 1	 0.0	 0.0	 0.0	 0.0	 1	    1.00000	    0.00000	 500.0	 1	    1.10000	    0.90000;
	35259	 2	 0.0	 0.0	 0.0	 0.0	 1	    1.00000	    0.00000	 138.0	 1	    1.10000	    0.90000;
	35260	 1	 0.0	 0.0	 0.0	 0.0	 1	    1.00000	    0.00000	 500.0	 1	    1.10000	    0.90000;
	35261	 1	 0.0	 0.0	 0.0	 0.0	 1	    1.00000	    0.00000	 230.0	 1	    1.10000	    0.90000;
	35262	 1	 0.0	 0.0	 0.0	 0.0	 1	    1.00000	    0.00000	 500.0	 1	    1.10000	    0.90000;
	35263	 1	 0.0	 0.0	 0.0	 0.0	 1	    1.00000	    0.00000	 138.0	 1	    1.10000	    0.90000;
	35264	 2	 0.0	 0.0	 0.0	 0.0	 1	    1.00000	    0.00000	 230.0	 1	    1.10000	    0.90000;
	35265	 2	 0.0	 0.0	 0.0	 0.0	 1	    1.00000	    0.00000	 500.0	 1	    1.10000	    0.90000;
	35266	 2	 0.0	 0.0	 0.0	 0.0	 1	    1.00000	    0.00000	 500.0	 1	    1.10000	    0.90000;
	35267	 1	 0.0	 0.0	 0.0	 0.0	 1	    1.00000	    0.00000	 500.0	 1	    1.10000	    0.90000;
	35268	 1	 0.0	 0.0	 0.0	 0.0	 1	    1.00000	    0.00000	 500.0	 1	    1.10000	    0.90000;
	35269	 1	 0.0	 0.0	 0.0	 0.0	 1	    1.00000	    0.00000	 500.0	 1	    1.10000	    0.90000;
	35270	 1	 0.0	 0.0	 0.0	 0.0	 1	    1.00000	    0.00000	 500.0	 1	    1.10000	    0.90000;
	35271	 1	 0.0	 0.0	 0.0	 0.0	 1	    1.00000	    0.00000	 500.0	 1	    1.10000	    0.90000;
	35272	 1	 0.0	 0.0	 0.0	 0.0	 1	    1.00000	    0.00000	 230.0	 1	    1.10000	    0.90000;
	35273	 1	 0.0	 0.0	 0.0	 0.0	 1	    1.00000	    0.00000	 500.0	 1	    1.10000	    0.90000;
	35274	 1	 0.0	 0.0	 0.0	 0.0	 1	    1.00000	    0.00000	 138.0	 1	    1.10000	    0.90000;
	35275	 1	 0.0	 0.0	 0.0	 0.0	 1	    1.00000	    0.00000	 138.0	 1	    1.10000	    0.90000;
	35276	 2	 0.0	 0.0	 0.0	 0.0	 1	    1.00000	    0.00000	 138.0	 1	    1.10000	    0.90000;
	35277	 2	 0.0	 0.0	 0.0	 0.0	 1	    1.00000	    0.00000	 138.0	 1	    1.10000	    0.90000;
	35278	 1	 0.0	 0.0	 0.0	 0.0	 1	    1.00000	    0.00000	 500.0	 1	    1.10000	    0.90000;
	35279	 1	 0.0	 0.0	 0.0	 0.0	 1	    1.00000	    0.00000	 138.0	 1	    1.10000	    0.90000;
	35280	 1	 0.0	 0.0	 0.0	 0.0	 1	    1.00000	    0.00000	 138.0	 1	    1.10000	    0.90000;
	35281	 2	 0.0	 0.0	 0.0	 0.0	 1	    1.00000	    0.00000	 138.0	 1	    1.10000	    0.90000;
	35282	 1	 0.0	 0.0	 0.0	 0.0	 1	    1.00000	    0.00000	 500.0	 1	    1.10000	    0.90000;
	35283	 2	 0.0	 0.0	 0.0	 0.0	 1	    1.00000	    0.00000	 138.0	 1	    1.10000	    0.90000;
	35284	 1	 0.0	 0.0	 0.0	 0.0	 1	    1.00000	    0.00000	 230.0	 1	    1.10000	    0.90000;
	35285	 2	 0.0	 0.0	 0.0	 0.0	 1	    1.00000	    0.00000	 69.0	 1	    1.10000	    0.90000;
	35286	 1	 0.0	 0.0	 0.0	 0.0	 1	    1.00000	    0.00000	 230.0	 1	    1.10000	    0.90000;
	35287	 1	 0.0	 0.0	 0.0	 0.0	 1	    1.00000	    0.00000	 138.0	 1	    1.10000	    0.90000;
	35288	 2	 0.0	 0.0	 0.0	 0.0	 1	    1.00000	    0.00000	 69.0	 1	    1.10000	    0.90000;
	35289	 1	 0.0	 0.0	 0.0	 0.0	 1	    1.00000	    0.00000	 138.0	 1	    1.10000	    0.90000;
	35290	 2	 0.0	 0.0	 0.0	 0.0	 1	    1.00000	    0.00000	 69.0	 1	    1.10000	    0.90000;
	35292	 1	 0.0	 0.0	 0.0	 0.0	 1	    1.00000	    0.00000	 230.0	 1	    1.10000	    0.90000;
	35293	 1	 0.0	 0.0	 0.0	 0.0	 1	    1.00000	    0.00000	 500.0	 1	    1.10000	    0.90000;
	35294	 2	 0.0	 0.0	 0.0	 0.0	 1	    1.00000	    0.00000	 138.0	 1	    1.10000	    0.90000;
	35295	 1	 0.0	 0.0	 0.0	 0.0	 1	    1.00000	    0.00000	 138.0	 1	    1.10000	    0.90000;
	35296	 2	 0.0	 0.0	 0.0	 0.0	 1	    1.00000	    0.00000	 138.0	 1	    1.10000	    0.90000;
	35297	 2	 0.0	 0.0	 0.0	 0.0	 1	    1.00000	    0.00000	 138.0	 1	    1.10000	    0.90000;
	35298	 2	 0.0	 0.0	 0.0	 0.0	 1	    1.00000	    0.00000	 138.0	 1	    1.10000	    0.90000;
	35299	 1	 0.0	 0.0	 0.0	 0.0	 1	    1.00000	    0.00000	 69.0	 1	    1.10000	    0.90000;
	35300	 2	 0.0	 0.0	 0.0	 0.0	 1	    1.00000	    0.00000	 138.0	 1	    1.10000	    0.90000;
	35301	 2	 0.0	 0.0	 0.0	 0.0	 1	    1.00000	    0.00000	 138.0	 1	    1.10000	    0.90000;
	35302	 1	 0.0	 0.0	 0.0	 0.0	 1	    1.00000	    0.00000	 138.0	 1	    1.10000	    0.90000;
	35303	 2	 0.0	 0.0	 0.0	 0.0	 1	    1.00000	    0.00000	 138.0	 1	    1.10000	    0.90000;
	35304	 1	 0.0	 0.0	 0.0	 0.0	 1	    1.00000	    0.00000	 500.0	 1	    1.10000	    0.90000;
	35305	 1	 0.0	 0.0	 0.0	 0.0	 1	    1.00000	    0.00000	 230.0	 1	    1.10000	    0.90000;
	35306	 1	 0.0	 0.0	 0.0	 0.0	 1	    1.00000	    0.00000	 230.0	 1	    1.10000	    0.90000;
	35307	 1	 0.0	 0.0	 0.0	 0.0	 1	    1.00000	    0.00000	 138.0	 1	    1.10000	    0.90000;
	35343	 1	 0.0	 0.0	 0.0	 0.0	 1	    1.00000	    0.00000	 230.0	 1	    1.10000	    0.90000;
	35344	 2	 0.0	 0.0	 0.0	 48.1477067132	 1	    1.00000	    0.00000	 138.0	 1	    1.10000	    0.90000;
	35345	 1	 43.40	 0.00	 0.0	 0.0	 1	    1.00000	    0.00000	 500.0	 1	    1.10000	    0.90000;
	35346	 1	 0.0	 0.0	 0.0	 0.0	 1	    1.00000	    0.00000	 230.0	 1	    1.10000	    0.90000;
	35347	 1	 0.0	 0.0	 0.0	 0.0	 1	    1.00000	    0.00000	 500.0	 1	    1.10000	    0.90000;
	35348	 2	 0.0	 0.0	 0.0	 0.0	 1	    1.00000	    0.00000	 500.0	 1	    1.10000	    0.90000;
	35349	 1	 0.0	 0.0	 0.0	 0.0	 1	    1.00000	    0.00000	 138.0	 1	    1.10000	    0.90000;
	35350	 1	 0.0	 0.0	 0.0	 0.0	 1	    1.00000	    0.00000	 500.0	 1	    1.10000	    0.90000;
	35351	 2	 0.0	 0.0	 0.0	 0.0	 1	    1.00000	    0.00000	 500.0	 1	    1.10000	    0.90000;
	35352	 1	 0.0	 0.0	 0.0	 0.0	 1	    1.00000	    0.00000	 500.0	 1	    1.10000	    0.90000;
	35353	 2	 0.0	 0.0	 0.0	 0.0	 1	    1.00000	    0.00000	 500.0	 1	    1.10000	    0.90000;
	35354	 2	 0.0	 0.0	 0.0	 0.0	 1	    1.00000	    0.00000	 138.0	 1	    1.10000	    0.90000;
	35355	 2	 0.0	 0.0	 0.0	 0.0	 1	    1.00000	    0.00000	 230.0	 1	    1.10000	    0.90000;
	35356	 2	 0.0	 0.0	 0.0	 0.0	 1	    1.00000	    0.00000	 138.0	 1	    1.10000	    0.90000;
	35357	 1	 0.0	 0.0	 0.0	 0.0	 1	    1.00000	    0.00000	 230.0	 1	    1.10000	    0.90000;
	35358	 1	 0.0	 0.0	 0.0	 0.0	 1	    1.00000	    0.00000	 138.0	 1	    1.10000	    0.90000;
	35359	 1	 0.0	 0.0	 0.0	 0.0	 1	    1.00000	    0.00000	 500.0	 1	    1.10000	    0.90000;
	35360	 1	 0.0	 0.0	 0.0	 0.0	 1	    1.00000	    0.00000	 138.0	 1	    1.10000	    0.90000;
	35361	 1	 0.0	 0.0	 0.0	 0.0	 1	    1.00000	    0.00000	 500.0	 1	    1.10000	    0.90000;
	35362	 1	 0.0	 0.0	 0.0	 0.0	 1	    1.00000	    0.00000	 230.0	 1	    1.10000	    0.90000;
	35364	 1	 0.0	 0.0	 0.0	 0.0	 1	    1.00000	    0.00000	 230.0	 1	    1.10000	    0.90000;
	35365	 1	 0.0	 0.0	 0.0	 0.0	 1	    1.00000	    0.00000	 138.0	 1	    1.10000	    0.90000;
	35366	 2	 0.0	 0.0	 0.0	 0.0	 1	    1.00000	    0.00000	 138.0	 1	    1.10000	    0.90000;
	35367	 1	 0.0	 0.0	 0.0	 0.0	 1	    1.00000	    0.00000	 69.0	 1	    1.10000	    0.90000;
	35368	 2	 0.0	 0.0	 0.0	 0.0	 1	    1.00000	    0.00000	 138.0	 1	    1.10000	    0.90000;
	35369	 2	 0.0	 0.0	 0.0	 0.0	 1	    1.00000	    0.00000	 230.0	 1	    1.10000	    0.90000;
	35370	 1	 0.0	 0.0	 0.0	 0.0	 1	    1.00000	    0.00000	 69.0	 1	    1.10000	    0.90000;
	35371	 2	 0.0	 0.0	 0.0	 0.0	 1	    1.00000	    0.00000	 138.0	 1	    1.10000	    0.90000;
	35372	 1	 0.0	 0.0	 0.0	 0.0	 1	    1.00000	    0.00000	 69.0	 1	    1.10000	    0.90000;
	35373	 1	 0.0	 0.0	 0.0	 0.0	 1	    1.00000	    0.00000	 69.0	 1	    1.10000	    0.90000;
	35374	 1	 0.0	 0.0	 0.0	 0.0	 1	    1.00000	    0.00000	 500.0	 1	    1.10000	    0.90000;
	35375	 1	 0.0	 0.0	 0.0	 0.0	 1	    1.00000	    0.00000	 69.0	 1	    1.10000	    0.90000;
	35376	 1	 0.0	 0.0	 0.0	 0.0	 1	    1.00000	    0.00000	 138.0	 1	    1.10000	    0.90000;
	35424	 1	 6.17	 0.97	 0.0	 0.0	 1	    1.00000	    0.00000	 69.0	 1	    1.10000	    0.90000;
	35425	 1	 5.36	 0.62	 0.0	 0.0	 1	    1.00000	    0.00000	 138.0	 1	    1.10000	    0.90000;
	35426	 1	 0.0	 0.0	 0.0	 0.0	 1	    1.00000	    0.00000	 500.0	 1	    1.10000	    0.90000;
	35427	 1	 11.25	 1.26	 0.0	 0.0	 1	    1.00000	    0.00000	 500.0	 1	    1.10000	    0.90000;
	35428	 1	 34.14	 4.77	 0.0	 0.0	 1	    1.00000	    0.00000	 500.0	 1	    1.10000	    0.90000;
	35429	 1	 0.0	 0.0	 0.0	 0.0	 1	    1.00000	    0.00000	 138.0	 1	    1.10000	    0.90000;
	35430	 1	 0.0	 0.0	 0.0	 0.0	 1	    1.00000	    0.00000	 138.0	 1	    1.10000	    0.90000;
	35431	 1	 54.04	 5.81	 0.0	 0.0	 1	    1.00000	    0.00000	 500.0	 1	    1.10000	    0.90000;
	35432	 1	 29.08	 4.07	 0.0	 0.0	 1	    1.00000	    0.00000	 500.0	 1	    1.10000	    0.90000;
	35433	 1	 0.0	 0.0	 0.0	 0.0	 1	    1.00000	    0.00000	 138.0	 1	    1.10000	    0.90000;
	35434	 1	 7.02	 1.14	 0.0	 0.0	 1	    1.00000	    0.00000	 69.0	 1	    1.10000	    0.90000;
	35435	 1	 7.57	 0.88	 0.0	 0.0	 1	    1.00000	    0.00000	 138.0	 1	    1.10000	    0.90000;
	35436	 1	 18.18	 2.84	 0.0	 0.0	 1	    1.00000	    0.00000	 69.0	 1	    1.10000	    0.90000;
	35437	 1	 12.50	 1.38	 0.0	 0.0	 1	    1.00000	    0.00000	 500.0	 1	    1.10000	    0.90000;
	35438	 1	 51.85	 7.00	 0.0	 0.0	 1	    1.00000	    0.00000	 500.0	 1	    1.10000	    0.90000;
	35439	 1	 20.49	 2.32	 0.0	 0.0	 1	    1.00000	    0.00000	 230.0	 1	    1.10000	    0.90000;
	35440	 1	 25.58	 4.09	 0.0	 0.0	 1	    1.00000	    0.00000	 69.0	 1	    1.10000	    0.90000;
	35441	 1	 0.0	 0.0	 0.0	 0.0	 1	    1.00000	    0.00000	 500.0	 1	    1.10000	    0.90000;
	35442	 1	 23.21	 3.80	 0.0	 0.0	 1	    1.00000	    0.00000	 500.0	 1	    1.10000	    0.90000;
	35443	 1	 0.0	 0.0	 0.0	 0.0	 1	    1.00000	    0.00000	 138.0	 1	    1.10000	    0.90000;
	35444	 1	 12.37	 1.69	 0.0	 0.0	 1	    1.00000	    0.00000	 69.0	 1	    1.10000	    0.90000;
	35445	 1	 0.0	 0.0	 0.0	 0.0	 1	    1.00000	    0.00000	 138.0	 1	    1.10000	    0.90000;
	35446	 1	 28.70	 4.65	 0.0	 0.0	 1	    1.00000	    0.00000	 69.0	 1	    1.10000	    0.90000;
	35447	 1	 19.50	 2.64	 0.0	 0.0	 1	    1.00000	    0.00000	 69.0	 1	    1.10000	    0.90000;
	35448	 1	 21.56	 2.43	 0.0	 0.0	 1	    1.00000	    0.00000	 138.0	 1	    1.10000	    0.90000;
	35449	 1	 0.0	 0.0	 0.0	 0.0	 1	    1.00000	    0.00000	 230.0	 1	    1.10000	    0.90000;
	35450	 1	 10.65	 1.48	 0.0	 0.0	 1	    1.00000	    0.00000	 69.0	 1	    1.10000	    0.90000;
	35451	 1	 15.52	 1.92	 0.0	 0.0	 1	    1.00000	    0.00000	 69.0	 1	    1.10000	    0.90000;
	35452	 1	 0.0	 0.0	 0.0	 0.0	 1	    1.00000	    0.00000	 230.0	 1	    1.10000	    0.90000;
	35453	 1	 12.63	 2.04	 0.0	 0.0	 1	    1.00000	    0.00000	 69.0	 1	    1.10000	    0.90000;
	35454	 1	 12.56	 2.02	 0.0	 0.0	 1	    1.00000	    0.00000	 69.0	 1	    1.10000	    0.90000;
	35455	 1	 0.0	 0.0	 0.0	 0.0	 1	    1.00000	    0.00000	 230.0	 1	    1.10000	    0.90000;
	35456	 1	 25.43	 2.88	 0.0	 0.0	 1	    1.00000	    0.00000	 69.0	 1	    1.10000	    0.90000;
	35457	 1	 47.58	 5.29	 0.0	 0.0	 1	    1.00000	    0.00000	 69.0	 1	    1.10000	    0.90000;
	35458	 1	 15.27	 0.00	 0.0	 0.0	 1	    1.00000	    0.00000	 69.0	 1	    1.10000	    0.90000;
	35459	 1	 6.20	 -1.00	 0.0	 0.0	 1	    1.00000	    0.00000	 69.0	 1	    1.10000	    0.90000;
	35460	 1	 7.68	 -2.03	 0.0	 0.0	 1	    1.00000	    0.00000	 69.0	 1	    1.10000	    0.90000;
	35461	 1	 12.20	 1.32	 0.0	 0.0	 1	    1.00000	    0.00000	 69.0	 1	    1.10000	    0.90000;
	35462	 1	 0.98	 0.11	 0.0	 0.0	 1	    1.00000	    0.00000	 69.0	 1	    1.10000	    0.90000;
	35463	 1	 0.0	 0.0	 0.0	 0.0	 1	    1.00000	    0.00000	 230.0	 1	    1.10000	    0.90000;
	35464	 1	 0.0	 0.0	 0.0	 0.0	 1	    1.00000	    0.00000	 138.0	 1	    1.10000	    0.90000;
	35465	 1	 21.73	 2.52	 0.0	 0.0	 1	    1.00000	    0.00000	 69.0	 1	    1.10000	    0.90000;
	35466	 1	 14.27	 1.54	 0.0	 0.0	 1	    1.00000	    0.00000	 69.0	 1	    1.10000	    0.90000;
	35467	 1	 12.39	 1.52	 0.0	 0.0	 1	    1.00000	    0.00000	 230.0	 1	    1.10000	    0.90000;
	35468	 1	 18.45	 1.90	 0.0	 0.0	 1	    1.00000	    0.00000	 69.0	 1	    1.10000	    0.90000;
	35469	 1	 0.0	 0.0	 0.0	 0.0	 1	    1.00000	    0.00000	 138.0	 1	    1.10000	    0.90000;
	35470	 1	 9.82	 1.07	 0.0	 0.0	 1	    1.00000	    0.00000	 69.0	 1	    1.10000	    0.90000;
	35471	 1	 0.0	 0.0	 0.0	 0.0	 1	    1.00000	    0.00000	 138.0	 1	    1.10000	    0.90000;
	35472	 1	 8.50	 0.90	 0.0	 0.0	 1	    1.00000	    0.00000	 138.0	 1	    1.10000	    0.90000;
	35473	 1	 13.44	 1.46	 0.0	 0.0	 1	    1.00000	    0.00000	 230.0	 1	    1.10000	    0.90000;
	35474	 1	 6.50	 1.01	 0.0	 0.0	 1	    1.00000	    0.00000	 69.0	 1	    1.10000	    0.90000;
	35475	 1	 0.0	 0.0	 0.0	 0.0	 1	    1.00000	    0.00000	 138.0	 1	    1.10000	    0.90000;
	35476	 1	 14.44	 1.63	 0.0	 0.0	 1	    1.00000	    0.00000	 69.0	 1	    1.10000	    0.90000;
	35477	 1	 15.97	 1.96	 0.0	 0.0	 1	    1.00000	    0.00000	 69.0	 1	    1.10000	    0.90000;
	35478	 1	 37.90	 4.00	 0.0	 0.0	 1	    1.00000	    0.00000	 69.0	 1	    1.10000	    0.90000;
	35479	 1	 0.0	 0.0	 0.0	 0.0	 1	    1.00000	    0.00000	 138.0	 1	    1.10000	    0.90000;
	35480	 1	 0.0	 0.0	 0.0	 0.0	 1	    1.00000	    0.00000	 138.0	 1	    1.10000	    0.90000;
	35481	 1	 0.0	 0.0	 0.0	 0.0	 1	    1.00000	    0.00000	 138.0	 1	    1.10000	    0.90000;
	35482	 1	 8.65	 0.93	 0.0	 0.0	 1	    1.00000	    0.00000	 138.0	 1	    1.10000	    0.90000;
	35483	 1	 0.0	 0.0	 0.0	 0.0	 1	    1.00000	    0.00000	 138.0	 1	    1.10000	    0.90000;
	35484	 1	 0.0	 0.0	 0.0	 0.0	 1	    1.00000	    0.00000	 138.0	 1	    1.10000	    0.90000;
	35485	 1	 28.49	 3.20	 0.0	 0.0	 1	    1.00000	    0.00000	 138.0	 1	    1.10000	    0.90000;
	35486	 1	 0.0	 0.0	 0.0	 0.0	 1	    1.00000	    0.00000	 138.0	 1	    1.10000	    0.90000;
	35487	 1	 0.0	 0.0	 0.0	 0.0	 1	    1.00000	    0.00000	 138.0	 1	    1.10000	    0.90000;
	35488	 1	 20.75	 2.89	 0.0	 0.0	 1	    1.00000	    0.00000	 69.0	 1	    1.10000	    0.90000;
	35489	 1	 3.68	 0.42	 0.0	 0.0	 1	    1.00000	    0.00000	 69.0	 1	    1.10000	    0.90000;
	35490	 1	 0.0	 0.0	 0.0	 0.0	 1	    1.00000	    0.00000	 138.0	 1	    1.10000	    0.90000;
	35491	 1	 0.0	 0.0	 0.0	 0.0	 1	    1.00000	    0.00000	 138.0	 1	    1.10000	    0.90000;
	35492	 1	 0.0	 0.0	 0.0	 0.0	 1	    1.00000	    0.00000	 138.0	 1	    1.10000	    0.90000;
	35493	 1	 7.76	 0.87	 0.0	 0.0	 1	    1.00000	    0.00000	 138.0	 1	    1.10000	    0.90000;
	35494	 1	 19.13	 2.16	 0.0	 0.0	 1	    1.00000	    0.00000	 138.0	 1	    1.10000	    0.90000;
	35495	 1	 3.34	 0.53	 0.0	 0.0	 1	    1.00000	    0.00000	 138.0	 1	    1.10000	    0.90000;
	35496	 1	 7.82	 0.88	 0.0	 0.0	 1	    1.00000	    0.00000	 138.0	 1	    1.10000	    0.90000;
	35497	 1	 15.28	 1.77	 0.0	 0.0	 1	    1.00000	    0.00000	 69.0	 1	    1.10000	    0.90000;
	35498	 1	 0.0	 0.0	 0.0	 0.0	 1	    1.00000	    0.00000	 138.0	 1	    1.10000	    0.90000;
	35499	 1	 7.10	 0.88	 0.0	 0.0	 1	    1.00000	    0.00000	 138.0	 1	    1.10000	    0.90000;
	35500	 1	 3.21	 0.45	 0.0	 0.0	 1	    1.00000	    0.00000	 69.0	 1	    1.10000	    0.90000;
	35501	 1	 5.07	 0.00	 0.0	 0.0	 1	    1.00000	    0.00000	 69.0	 1	    1.10000	    0.90000;
	35502	 1	 4.67	 0.00	 0.0	 0.0	 1	    1.00000	    0.00000	 69.0	 1	    1.10000	    0.90000;
	35503	 1	 0.0	 0.0	 0.0	 0.0	 1	    1.00000	    0.00000	 138.0	 1	    1.10000	    0.90000;
	35504	 1	 8.56	 0.00	 0.0	 0.0	 1	    1.00000	    0.00000	 138.0	 1	    1.10000	    0.90000;
	35505	 1	 0.0	 0.0	 0.0	 0.0	 1	    1.00000	    0.00000	 138.0	 1	    1.10000	    0.90000;
	35506	 1	 0.0	 0.0	 0.0	 0.0	 1	    1.00000	    0.00000	 138.0	 1	    1.10000	    0.90000;
	35507	 1	 21.95	 0.00	 0.0	 0.0	 1	    1.00000	    0.00000	 69.0	 1	    1.10000	    0.90000;
	35508	 1	 5.83	 0.00	 0.0	 0.0	 1	    1.00000	    0.00000	 69.0	 1	    1.10000	    0.90000;
	35509	 1	 0.0	 0.0	 0.0	 0.0	 1	    1.00000	    0.00000	 230.0	 1	    1.10000	    0.90000;
	35510	 1	 52.35	 0.00	 0.0	 0.0	 1	    1.00000	    0.00000	 138.0	 1	    1.10000	    0.90000;
	35511	 1	 8.97	 0.00	 0.0	 0.0	 1	    1.00000	    0.00000	 138.0	 1	    1.10000	    0.90000;
	35512	 1	 0.0	 0.0	 0.0	 0.0	 1	    1.00000	    0.00000	 138.0	 1	    1.10000	    0.90000;
	35513	 1	 5.54	 0.00	 0.0	 0.0	 1	    1.00000	    0.00000	 69.0	 1	    1.10000	    0.90000;
	35514	 1	 4.40	 0.20	 0.0	 0.0	 1	    1.00000	    0.00000	 138.0	 1	    1.10000	    0.90000;
	35515	 1	 25.96	 0.00	 0.0	 0.0	 1	    1.00000	    0.00000	 138.0	 1	    1.10000	    0.90000;
	35516	 1	 0.0	 0.0	 0.0	 0.0	 1	    1.00000	    0.00000	 138.0	 1	    1.10000	    0.90000;
	35517	 1	 10.29	 0.00	 0.0	 0.0	 1	    1.00000	    0.00000	 138.0	 1	    1.10000	    0.90000;
	35518	 1	 0.0	 0.0	 0.0	 29.9999859376	 1	    1.00000	    0.00000	 138.0	 1	    1.10000	    0.90000;
	35519	 1	 11.51	 0.00	 0.0	 0.0	 1	    1.00000	    0.00000	 69.0	 1	    1.10000	    0.90000;
	35520	 1	 6.59	 0.00	 0.0	 0.0	 1	    1.00000	    0.00000	 69.0	 1	    1.10000	    0.90000;
	35521	 1	 4.12	 0.00	 0.0	 0.0	 1	    1.00000	    0.00000	 69.0	 1	    1.10000	    0.90000;
	35522	 1	 0.0	 0.0	 0.0	 0.0	 1	    1.00000	    0.00000	 138.0	 1	    1.10000	    0.90000;
	35523	 1	 6.06	 -2.00	 0.0	 0.0	 1	    1.00000	    0.00000	 69.0	 1	    1.10000	    0.90000;
	35524	 1	 0.0	 0.0	 0.0	 0.0	 1	    1.00000	    0.00000	 138.0	 1	    1.10000	    0.90000;
	35525	 1	 5.46	 0.00	 0.0	 0.0	 1	    1.00000	    0.00000	 69.0	 1	    1.10000	    0.90000;
	35526	 1	 16.56	 2.00	 0.0	 0.0	 1	    1.00000	    0.00000	 138.0	 1	    1.10000	    0.90000;
	35527	 1	 6.59	 0.00	 0.0	 0.0	 1	    1.00000	    0.00000	 69.0	 1	    1.10000	    0.90000;
	35528	 1	 5.57	 0.00	 0.0	 0.0	 1	    1.00000	    0.00000	 138.0	 1	    1.10000	    0.90000;
	35529	 1	 12.75	 2.20	 0.0	 0.0	 1	    1.00000	    0.00000	 138.0	 1	    1.10000	    0.90000;
	35530	 1	 0.0	 0.0	 0.0	 0.0	 1	    1.00000	    0.00000	 138.0	 1	    1.10000	    0.90000;
	35532	 1	 8.38	 1.19	 0.0	 0.0	 1	    1.00000	    0.00000	 138.0	 1	    1.10000	    0.90000;
	35533	 1	 39.33	 4.72	 0.0	 0.0	 1	    1.00000	    0.00000	 138.0	 1	    1.10000	    0.90000;
	35534	 1	 8.53	 1.20	 0.0	 0.0	 1	    1.00000	    0.00000	 69.0	 1	    1.10000	    0.90000;
...
];

%% generator data
%	bus	Pg	Qg	Qmax	Qmin	Vg	mBase	status	Pmax	Pmin
mpc.gen = [
	35250	 1290.0	 0.0	 1103.0	 -1103.0	 1.0	 100.0	 1	 2205	 375.0; % COW
	35250	 1275.0	 0.0	 1088.0	 -1088.0	 1.0	 100.0	 1	 2175	 375.0; % COW
	35250	 1142.5	 0.0	 955.0	 -955.0	 1.0	 100.0	 1	 1910	 375.0; % COW
	35251	 774.0	 0.0	 712.0	 -712.0	 1.0	 100.0	 1	 1423	 125.0; % COW
	35251	 702.0	 0.0	 640.0	 -640.0	 1.0	 100.0	 1	 1279	 125.0; % COW
	35252	 592.0	 0.0	 517.0	 -517.0	 1.0	 100.0	 1	 1034	 150.0; % COW
	35252	 571.5	 0.0	 497.0	 -497.0	 1.0	 100.0	 1	 993	 150.0; % COW
	35252	 615.5	 0.0	 541.0	 -541.0	 1.0	 100.0	 1	 1081	 150.0; % COW
	35252	 603.5	 0.0	 529.0	 -529.0	 1.0	 100.0	 1	 1057	 150.0; % PEL
	35254	 401.0	 0.0	 351.0	 -351.0	 1.0	 100.0	 1	 702	 100.0; % NG
	35254	 381.5	 0.0	 356.0	 -356.0	 1.0	 100.0	 1	 711	 52.0; % NG
	35254	 330.0	 0.0	 304.0	 -304.0	 1.0	 100.0	 1	 608	 52.0; % NG
	35254	 340.75	 0.0	 319.0	 -319.0	 1.0	 100.0	 1	 638	 43.5; % NG
	35254	 346.25	 0.0	 327.0	 -327.0	 1.0	 100.0	 1	 653	 39.5; % NG
	35254	 570.75	 16.95	 488.9	 -455.0	 1.0	 100.0	 1	 909	 232.5; % NUC
	35255	 649.0	 58.0	 590.0	 -474.0	 1.0	 100.0	 1	 948	 350.0; % COW
	35255	 678.5	 0.0	 661.0	 -661.0	 1.0	 100.0	 1	 1322	 35.0; % COW
	35255	 193.0	 0.0	 360.0	 -360.0	 1.0	 100.0	 1	 351	 35.0; % NG
	35255	 244.0	 0.0	 360.0	 -360.0	 1.0	 100.0	 1	 453	 35.0; % NG
	35257	 381.75	 0.0	 504.0	 -504.0	 1.0	 100.0	 1	 676	 87.5; % NG
	35257	 381.75	 0.0	 504.0	 -504.0	 1.0	 100.0	 1	 676	 87.5; % NG
	35259	 520.0	 0.0	 513.0	 -513.0	 1.0	 100.0	 1	 1025	 15.0; % NG
	35264	 314.18075	 0.0	 287.0	 -287.0	 1.0	 100.0	 1	 574	 54.3615; % NG
	35264	 225.14275	 0.0	 198.0	 -198.0	 1.0	 100.0	 1	 396	 54.2855; % NG
	35264	 183.0125	 0.0	 159.0	 -159.0	 1.0	 100.0	 1	 317	 49.025; % NG
	35264	 176.5125	 0.0	 152.0	 -152.0	 1.0	 100.0	 1	 304	 49.025; % NG
	35264	 198.2	 0.0	 170.0	 -170.0	 1.0	 100.0	 1	 340	 56.4; % NG
	35264	 369.2	 0.0	 341.0	 -341.0	 1.0	 100.0	 1	 682	 56.4; % NG
	35265	 147.0	 0.0	 711.6	 -711.6	 1.0	 100.0	 1	 249	 45.0; % NG
	35265	 216.0	 0.0	 711.6	 -711.6	 1.0	 100.0	 1	 387	 45.0; % NG
	35265	 128.5	 0.0	 711.6	 -711.6	 1.0	 100.0	 1	 212	 45.0; % NG
	35266	 510.5	 0.0	 488.0	 -488.0	 1.0	 100.0	 1	 976	 45.0; % NG
	35276	 191.0	 0.0	 184.0	 -184.0	 1.0	 100.0	 1	 368	 14.0; % PEL
	35277	 90.375	 0.0	 75.0	 -75.0	 1.0	 100.0	 1	 150	 30.75; % PEL
	35277	 118.375	 0.0	 103.0	 -103.0	 1.0	 100.0	 1	 206	 30.75; % NG
	35281	 79.0	 0.0	 67.0	 -67.0	 1.0	 100.0	 1	 133	 25.0; % NG
	35283	 217.5	 0.0	 215.0	 -215.0	 1.0	 100.0	 1	 430	 5.0; % COW
	35285	 68.75	 0.0	 58.0	 -58.0	 1.0	 100.0	 1	 115	 22.5; % NG
	35288	 151.5	 0.0	 143.0	 -143.0	 1.0	 100.0	 1	 286	 17.0; % NG
	35288	 214.0	 0.0	 206.0	 -206.0	 1.0	 100.0	 1	 411	 17.0; % COW
	35290	 19.5375	 0.0	 18.0	 -18.0	 1.0	 100.0	 1	 36	 3.075; % NG
	35290	 44.5375	 0.0	 43.0	 -43.0	 1.0	 100.0	 1	 86	 3.075; % NG
	35290	 55.0375	 0.0	 54.0	 -54.0	 1.0	 100.0	 1	 107	 3.075; % NG
	35290	 24.5375	 0.0	 23.0	 -23.0	 1.0	 100.0	 1	 46	 3.075; % NG
	35290	 26.5375	 0.0	 25.0	 -25.0	 1.0	 100.0	 1	 50	 3.075; % NG
	35290	 29.0375	 0.0	 28.0	 -28.0	 1.0	 100.0	 1	 55	 3.075; % NG
	35294	 46.5	 0.0	 54.0	 -54.0	 1.0	 100.0	 1	 81	 12.0; % PEL
	35294	 49.0	 0.0	 54.0	 -54.0	 1.0	 100.0	 1	 86	 12.0; % NG
	35294	 50.0	 0.0	 54.0	 -54.0	 1.0	 100.0	 1	 88	 12.0; % PEL
	35296	 106.75	 0.0	 100.0	 -100.0	 1.0	 100.0	 1	 199	 14.5; % COW
	35296	 61.25	 0.0	 54.0	 -54.0	 1.0	 100.0	 1	 108	 14.5; % PEL
	35296	 123.25	 0.0	 116.0	 -116.0	 1.0	 100.0	 1	 232	 14.5; % NG
	35296	 84.25	 0.0	 77.0	 -77.0	 1.0	 100.0	 1	 154	 14.5; % PEL
	35296	 38.25	 0.0	 31.0	 -31.0	 1.0	 100.0	 1	 62	 14.5; % NG
	35296	 124.75	 0.0	 118.0	 -118.0	 1.0	 100.0	 1	 235	 14.5; % NG
	35297	 102.075	 0.0	 97.0	 -97.0	 1.0	 100.0	 1	 193	 11.15; % NG
	35297	 83.575	 0.0	 78.0	 -78.0	 1.0	 100.0	 1	 156	 11.15; % NG
	35297	 78.575	 0.0	 73.0	 -73.0	 1.0	 100.0	 1	 146	 11.15; % PEL
	35298	 56.65	 0.0	 53.0	 -53.0	 1.0	 100.0	 1	 106	 7.3; % NG
	35298	 48.225	 0.0	 45.0	 -45.0	 1.0	 100.0	 1	 90	 6.45; % NG
	35298	 150.925	 0.0	 149.0	 -149.0	 1.0	 100.0	 1	 297	 4.85; % NG
	35298	 56.425	 0.0	 54.0	 -54.0	 1.0	 100.0	 1	 108	 4.85; % PEL
	35300	 27.25	 0.0	 21.0	 -21.0	 1.0	 100.0	 1	 42	 12.5; % COW
	35300	 60.25	 0.0	 54.0	 -54.0	 1.0	 100.0	 1	 108	 12.5; % PEL
	35300	 42.25	 0.0	 36.0	 -36.0	 1.0	 100.0	 1	 72	 12.5; % NG
	35300	 49.75	 0.0	 44.0	 -44.0	 1.0	 100.0	 1	 87	 12.5; % NG
	35301	 111.875	 0.0	 106.0	 -106.0	 1.0	 100.0	 1	 212	 11.75; % NG
	35301	 63.375	 0.0	 58.0	 -58.0	 1.0	 100.0	 1	 115	 11.75; % PEL
	35303	 63.1	 0.0	 58.0	 -58.0	 1.0	 100.0	 1	 115	 11.2; % PEL
	35303	 54.575	 0.0	 49.0	 -49.0	 1.0	 100.0	 1	 98	 11.15; % PEL
	35303	 50.075	 0.0	 45.0	 -45.0	 1.0	 100.0	 1	 89	 11.15; % PEL
	35344	 443.25	 0.0	 392.0	 -392.0	 1.0	 100.0	 1	 784	 102.5; % COW
	35348	 633.225	 0.0	 633.0	 -633.0	 1.0	 100.0	 1	 1266	 0.45; % NG
	35351	 198.75	 0.0	 174.0	 -174.0	 1.0	 100.0	 1	 348	 49.5; % NG
	35351	 196.25	 0.0	 172.0	 -172.0	 1.0	 100.0	 1	 343	 49.5; % NG
	35351	 454.75	 0.0	 430.0	 -430.0	 1.0	 100.0	 1	 860	 49.5; % COW
	35351	 189.0	 0.0	 176.0	 -176.0	 1.0	 100.0	 1	 351	 27.0; % COW
	35351	 119.0	 0.0	 106.0	 -106.0	 1.0	 100.0	 1	 211	 27.0; % NG
	35351	 125.5	 0.0	 112.0	 -112.0	 1.0	 100.0	 1	 224	 27.0; % NG
	35353	 87.5	 5.25	 86.5	 -76.0	 1.0	 100.0	 1	 152	 23.0; % NG
	35353	 54.5	 13.5	 86.5	 -59.5	 1.0	 100.0	 1	 86	 23.0; % COW
	35353	 104.0	 0.0	 93.0	 -93.0	 1.0	 100.0	 1	 185	 23.0; % COW
	35353	 83.25	 0.8	 75.6	 -74.0	 1.0	 100.0	 1	 147	 19.5; % NG
	35353	 42.75	 11.8	 75.6	 -52.0	 1.0	 100.0	 1	 66	 19.5; % NG
	35353	 33.25	 11.8	 75.6	 -52.0	 1.0	 100.0	 1	 47	 19.5; % NG
	35354	 146.5	 0.0	 124.0	 -124.0	 1.0	 100.0	 1	 248	 45.0; % NG
	35354	 246.5	 0.0	 224.0	 -224.0	 1.0	 100.0	 1	 448	 45.0; % NG
	35354	 432.5	 0.0	 403.0	 -403.0	 1.0	 100.0	 1	 805	 60.0; % NG
	35355	 220.75	 0.0	 197.0	 -197.0	 1.0	 100.0	 1	 394	 47.5; % NG
	35355	 246.25	 0.0	 223.0	 -223.0	 1.0	 100.0	 1	 445	 47.5; % COW
	35356	 196.0	 0.0	 179.0	 -179.0	 1.0	 100.0	 1	 357	 35.0; % NG
	35366	 71.0	 0.0	 65.0	 -65.0	 1.0	 100.0	 1	 130	 12.0; % NG
	35366	 81.0	 0.0	 75.0	 -75.0	 1.0	 100.0	 1	 150	 12.0; % NG
	35366	 145.5	 0.0	 140.0	 -140.0	 1.0	 100.0	 1	 279	 12.0; % NG
	35368	 73.75	 0.0	 69.0	 -69.0	 1.0	 100.0	 1	 137	 10.5; % NG
	35368	 60.75	 0.0	 57.0	 -57.0	 1.0	 100.0	 1	 113	 8.5; % PEL
	35368	 104.25	 0.0	 100.0	 -100.0	 1.0	 100.0	 1	 200	 8.5; % NG
	35369	 319.0	 0.0	 312.0	 -312.0	 1.0	 100.0	 1	 623	 15.0; % NG
	35369	 311.75	 0.0	 307.0	 -307.0	 1.0	 100.0	 1	 613	 10.5; % NG
	35369	 651.075	 0.0	 612.0	 -612.0	 1.0	 100.0	 1	 1224	 78.15; % COW
	35371	 134.25	 0.0	 133.0	 -133.0	 1.0	 100.0	 1	 266	 2.5; % NG
	75446	 591.0	 0.0	 564.0	 -564.0	 1.0	 100.0	 1	 1127	 55.0; % NG
	75446	 591.0	 0.0	 564.0	 -564.0	 1.0	 100.0	 1	 1127	 55.0; % NG
	75453	 405.5	 0.0	 398.0	 -398.0	 1.0	 100.0	 1	 796	 15.0; % NG
	75457	 41.0	 0.0	 66.0	 -66.0	 1.0	 100.0	 1	 77	 5.0; % PEL
	75457	 86.5	 0.0	 84.0	 -84.0	 1.0	 100.0	 1	 168	 5.0; % PEL
	75457	 115.0	 0.0	 113.0	 -113.0	 1.0	 100.0	 1	 225	 5.0; % NG
	75457	 341.75	 3.2	 266.4	 -260.0	 1.0	 100.0	 1	 520	 163.5; % NG
	75457	 44.5	 0.0	 66.0	 -66.0	 1.0	 100.0	 1	 84	 5.0; % PEL
	75457	 128.0	 0.0	 126.0	 -126.0	 1.0	 100.0	 1	 251	 5.0; % NG
	75457	 106.5	 0.0	 104.0	 -104.0	 1.0	 100.0	 1	 208	 5.0; % PEL
	75457	 114.0	 0.0	 112.0	 -112.0	 1.0	 100.0	 1	 223	 5.0; % NG
	75457	 95.0	 0.0	 93.0	 -93.0	 1.0	 100.0	 1	 185	 5.0; % NG
	75462	 119.672	 0.0	 113.0	 -113.0	 1.0	 100.0	 1	 225	 14.344; % PEL
	75462	 112.172	 0.0	 105.0	 -105.0	 1.0	 100.0	 1	 210	 14.344; % PEL
	75462	 116.172	 0.0	 109.0	 -109.0	 1.0	 100.0	 1	 218	 14.344; % PEL
	75462	 158.672	 0.0	 152.0	 -152.0	 1.0	 100.0	 1	 303	 14.344; % PEL
	75462	 100.172	 0.0	 93.0	 -93.0	 1.0	 100.0	 1	 186	 14.344; % NG
	75462	 149.172	 0.0	 142.0	 -142.0	 1.0	 100.0	 1	 284	 14.344; % PEL
	75466	 555.0	 0.0	 2058.0	 -2058.0	 1.0	 100.0	 1	 810	 300.0; % COW
	75471	 152.25	 0.0	 132.0	 -132.0	 1.0	 100.0	 1	 263	 41.5; % NG
	75471	 154.25	 0.0	 134.0	 -134.0	 1.0	 100.0	 1	 267	 41.5; % NG
	75481	 373.2	 0.0	 363.0	 -363.0	 1.0	 100.0	 1	 726	 20.4; % COW
	75481	 134.7	 0.0	 125.0	 -125.0	 1.0	 100.0	 1	 249	 20.4; % PEL
	75481	 189.2	 0.0	 179.0	 -179.0	 1.0	 100.0	 1	 358	 20.4; % NG
	75481	 130.7	 0.0	 121.0	 -121.0	 1.0	 100.0	 1	 241	 20.4; % PEL
	75483	 42.45	 0.0	 39.6	 -39.6	 1.0	 100.0	 1	 64	 20.9; % NG
	75483	 65.4	 0.0	 55.0	 -55.0	 1.0	 100.0	 1	 110	 20.8; % NG
	75483	 35.4	 0.0	 39.6	 -39.6	 1.0	 100.0	 1	 50	 20.8; % NG
	75487	 92.4	 0.0	 86.0	 -86.0	 1.0	 100.0	 1	 171	 13.8; % NG
	75487	 104.5	 0.0	 98.0	 -98.0	 1.0	 100.0	 1	 195	 14.0; % NG
	75487	 90.975	 0.0	 84.0	 -84.0	 1.0	 100.0	 1	 168	 13.95; % NG
	75487	 32.8	 0.0	 26.0	 -26.0	 1.0	 100.0	 1	 52	 13.6; % NG
	75487	 76.85	 0.0	 71.0	 -71.0	 1.0	 100.0	 1	 141	 12.7; % PEL
	75487	 57.25	 0.0	 51.0	 -51.0	 1.0	 100.0	 1	 102	 12.5; % NG
	75487	 44.875	 0.0	 39.0	 -39.0	 1.0	 100.0	 1	 78	 11.75; % NG
	75487	 89.35	 0.0	 84.0	 -84.0	 1.0	 100.0	 1	 167	 11.7; % NG
	75487	 96.85	 0.0	 91.0	 -91.0	 1.0	 100.0	 1	 182	 11.7; % COW
	75487	 56.325	 0.0	 51.0	 -51.0	 1.0	 100.0	 1	 101	 11.65; % NG
	75487	 77.75	 0.0	 72.0	 -72.0	 1.0	 100.0	 1	 144	 11.5; % NG
	75493	 51.8	 0.0	 39.0	 -39.0	 1.0	 100.0	 1	 78	 25.6; % PEL
	75493	 44.0	 0.0	 40.0	 -40.0	 1.0	 100.0	 1	 79	 9.0; % PEL
	75493	 15.0	 0.0	 19.2	 -19.2	 1.0	 100.0	 1	 21	 9.0; % PEL
	75493	 28.5	 0.0	 24.0	 -24.0	 1.0	 100.0	 1	 48	 9.0; % NG
	75493	 19.0	 0.0	 19.2	 -19.2	 1.0	 100.0	 1	 29	 9.0; % PEL
	75493	 43.5	 0.0	 39.0	 -39.0	 1.0	 100.0	 1	 78	 9.0; % COW
	75493	 45.5	 0.0	 41.0	 -41.0	 1.0	 100.0	 1	 82	 9.0; % NG
	75493	 29.0	 0.0	 25.0	 -25.0	 1.0	 100.0	 1	 49	 9.0; % NG
	75493	 35.5	 0.0	 31.0	 -31.0	 1.0	 100.0	 1	 61	 10.0; % NG
	75493	 40.25	 0.0	 35.0	 -35.0	 1.0	 100.0	 1	 70	 10.5; % PEL
	75493	 37.75	 0.0	 33.0	 -33.0	 1.0	 100.0	 1	 65	 10.5; % PEL
	75493	 74.0	 0.0	 62.0	 -62.0	 1.0	 100.0	 1	 123	 25.0; % NG
	75493	 49.25	 0.0	 44.0	 -44.0	 1.0	 100.0	 1	 88	 10.5; % PEL
	75493	 50.75	 0.0	 46.0	 -46.0	 1.0	 100.0	 1	 91	 10.5; % NG
	75493	 48.5	 0.0	 36.0	 -36.0	 1.0	 100.0	 1	 72	 25.0; % NG
	75493	 33.0	 0.0	 28.0	 -28.0	 1.0	 100.0	 1	 55	 11.0; % NG
	75493	 19.0	 0.0	 19.2	 -19.2	 1.0	 100.0	 1	 27	 11.0; % NG
	75493	 33.5	 0.0	 29.0	 -29.0	 1.0	 100.0	 1	 58	 9.0; % NG
	75493	 55.0	 0.0	 50.0	 -50.0	 1.0	 100.0	 1	 100	 10.0; % NG
	75493	 22.5	 0.0	 19.2	 -19.2	 1.0	 100.0	 1	 35	 10.0; % PEL
	75493	 56.0	 0.0	 51.0	 -51.0	 1.0	 100.0	 1	 102	 10.0; % NG
	75495	 73.25	 0.0	 70.0	 -70.0	 1.0	 100.0	 1	 139	 7.5; % PEL
	75495	 115.75	 0.0	 112.0	 -112.0	 1.0	 100.0	 1	 224	 7.5; % NG
	75495	 63.25	 0.0	 60.0	 -60.0	 1.0	 100.0	 1	 119	 7.5; % PEL
	75495	 100.75	 0.0	 97.0	 -97.0	 1.0	 100.0	 1	 194	 7.5; % NG
	75496	 70.2	 0.0	 58.0	 -58.0	 1.0	 100.0	 1	 116	 24.4; % NG
	75496	 107.7	 0.0	 96.0	 -96.0	 1.0	 100.0	 1	 191	 24.4; % NG
	75496	 75.2	 0.0	 63.0	 -63.0	 1.0	 100.0	 1	 126	 24.4; % NG
	75496	 63.375	 0.0	 59.0	 -59.0	 1.0	 100.0	 1	 117	 9.75; % PEL
	75501	 144.5	 0.0	 117.0	 -117.0	 1.0	 100.0	 1	 234	 55.0; % NG
	75501	 110.5	 16.0	 115.0	 -83.0	 1.0	 100.0	 1	 166	 55.0; % NG
	75501	 113.0	 14.5	 115.0	 -86.0	 1.0	 100.0	 1	 171	 55.0; % NG
	75501	 332.25	 24.4	 339.8	 -291.0	 1.0	 100.0	 1	 582	 82.5; % COW
	75501	 320.75	 29.9	 339.8	 -280.0	 1.0	 100.0	 1	 559	 82.5; % COW
	75503	 469.0	 0.0	 422.0	 -422.0	 1.0	 100.0	 1	 843	 95.0; % NG
	75503	 554.0	 0.0	 507.0	 -507.0	 1.0	 100.0	 1	 1013	 95.0; % COW
	75531	 85.7025	 0.0	 81.0	 -81.0	 1.0	 100.0	 1	 162	 9.405; % NG
	75533	 77.5	 0.0	 69.0	 -69.0	 1.0	 100.0	 1	 137	 18.0; % PEL
	75533	 108.5	 0.0	 100.0	 -100.0	 1.0	 100.0	 1	 199	 18.0; % COW
	75533	 103.0	 0.0	 94.0	 -94.0	 1.0	 100.0	 1	 188	 18.0; % NG
	75533	 88.75	 0.0	 76.0	 -76.0	 1.0	 100.0	 1	 151	 26.5; % NG
	75533	 122.25	 0.0	 109.0	 -109.0	 1.0	 100.0	 1	 218	 26.5; % NG
];

%% generator cost data
%	2	startup	shutdown	n	c(n-1)	...	c0
mpc.gencost = [
	2	 0.0	 0.0	 3	   0.000000	   0.000000	   0.000000; % COW
	2	 0.0	 0.0	 3	   0.000000	   0.000000	   0.000000; % COW
	2	 0.0	 0.0	 3	   0.000000	   0.000000	   0.000000; % COW
	2	 0.0	 0.0	 3	   0.000000	   0.000000	   0.000000; % COW
	2	 0.0	 0.0	 3	   0.000000	   0.000000	   0.000000; % COW
	2	 0.0	 0.0	 3	   0.001729	   9.729000	   0.000000; % COW
	2	 0.0	 0.0	 3	   0.001729	  10.940000	   0.000000; % COW
	2	 0.0	 0.0	 3	   0.001729	  11.240000	   0.000000; % COW
	2	 0.0	 0.0	 3	   0.001729	  10.630000	   0.000000; % PEL
	2	 0.0	 0.0	 3	   0.007322	   3.511000	  -2.461000; % NG
	2	 0.0	 0.0	 3	   0.000000	  58.290000	 -640.400000; % NG
	2	 0.0	 0.0	 3	   0.000000	  56.280000	 -640.400000; % NG
	2	 0.0	 0.0	 3	   0.032260	  49.440000	  -4.867000; % NG
	2	 0.0	 0.0	 3	   0.032280	  48.310000	  -4.253000; % NG
	2	 0.0	 0.0	 3	   0.003172	   3.484000	  -2.757000; % NUC
	2	 0.0	 0.0	 3	   0.000000	  13.280000	 -1064.000000; % COW
	2	 0.0	 0.0	 3	   0.004972	  12.220000	   0.000000; % COW
	2	 0.0	 0.0	 3	   0.004972	  11.580000	   0.000000; % NG
	2	 0.0	 0.0	 3	   0.004972	  10.050000	   0.000000; % NG
	2	 0.0	 0.0	 3	   0.026260	  14.900000	 -10.450000; % NG
	2	 0.0	 0.0	 3	   0.026260	  13.730000	 -10.450000; % NG
	2	 0.0	 0.0	 3	   0.026390	  14.130000	  -2.315000; % NG
	2	 0.0	 0.0	 3	   0.032230	  11.960000	  -6.705000; % NG
	2	 0.0	 0.0	 3	   0.032230	  12.100000	  -6.687000; % NG
	2	 0.0	 0.0	 3	   0.032270	  12.460000	  -5.586000; % NG
	2	 0.0	 0.0	 3	   0.032270	  11.900000	  -5.586000; % NG
	2	 0.0	 0.0	 3	   0.026360	  13.880000	  -4.795000; % NG
	2	 0.0	 0.0	 3	   0.026360	  13.820000	  -4.796000; % NG
	2	 0.0	 0.0	 3	   0.032280	  11.920000	  -4.937000; % NG
	2	 0.0	 0.0	 3	   0.032280	  11.720000	  -4.937000; % NG
	2	 0.0	 0.0	 3	   0.032280	  11.100000	  -4.937000; % NG
	2	 0.0	 0.0	 3	   0.032270	  11.060000	  -4.989000; % NG
	2	 0.0	 0.0	 3	   0.000000	  33.550000	 -88.160000; % PEL
	2	 0.0	 0.0	 3	   0.000000	  18.850000	 -262.200000; % PEL
	2	 0.0	 0.0	 3	   0.000000	  19.300000	 -262.200000; % NG
	2	 0.0	 0.0	 3	   0.000000	   0.005882	   0.000000; % NG
	2	 0.0	 0.0	 3	   0.000000	  18.200000	 -23.320000; % COW
	2	 0.0	 0.0	 3	   0.000000	   0.004762	   0.000000; % NG
	2	 0.0	 0.0	 3	   0.000000	  15.420000	 -88.300000; % NG
	2	 0.0	 0.0	 3	   0.000000	  16.920000	 -88.300000; % COW
	2	 0.0	 0.0	 3	   0.000000	   0.020700	   0.000000; % NG
	2	 0.0	 0.0	 3	   0.000000	   0.020700	   0.000000; % NG
	2	 0.0	 0.0	 3	   0.000000	   0.020700	   0.000000; % NG
	2	 0.0	 0.0	 3	   0.000000	   0.020700	   0.000000; % NG
	2	 0.0	 0.0	 3	   0.000000	   0.020700	   0.000000; % NG
	2	 0.0	 0.0	 3	   0.000000	   0.020700	   0.000000; % NG
	2	 0.0	 0.0	 3	   0.000000	  16.270000	 -53.800000; % PEL
	2	 0.0	 0.0	 3	   0.000000	  14.990000	 -53.800000; % NG
	2	 0.0	 0.0	 3	   0.000000	  16.580000	 -53.800000; % PEL
	2	 0.0	 0.0	 3	   0.000000	   0.014290	   0.000000; % COW
	2	 0.0	 0.0	 3	   0.000000	   0.014290	   0.000000; % PEL
	2	 0.0	 0.0	 3	   0.000000	   0.014290	   0.000000; % NG
	2	 0.0	 0.0	 3	   0.000000	   0.014290	   0.000000; % PEL
	2	 0.0	 0.0	 3	   0.000000	   0.014290	   0.000000; % NG
	2	 0.0	 0.0	 3	   0.000000	   0.014290	   0.000000; % NG
	2	 0.0	 0.0	 3	   0.000000	  14.480000	 -42.600000; % NG
	2	 0.0	 0.0	 3	   0.000000	  16.400000	 -42.600000; % NG
	2	 0.0	 0.0	 3	   0.000000	  14.170000	 -42.600000; % PEL
	2	 0.0	 0.0	 3	   0.000000	  14.750000	 -30.910000; % NG
	2	 0.0	 0.0	 3	   0.000000	  15.530000	 -28.560000; % NG
	2	 0.0	 0.0	 3	   0.000000	  13.010000	 -24.210000; % NG
	2	 0.0	 0.0	 3	   0.000000	  14.460000	 -24.210000; % PEL
	2	 0.0	 0.0	 3	   0.000000	   0.050000	  -1.245000; % COW
	2	 0.0	 0.0	 3	   0.000000	   0.050000	  -1.245000; % PEL
	2	 0.0	 0.0	 3	   0.000000	   0.050000	  -1.245000; % NG
	2	 0.0	 0.0	 3	   0.000000	   0.050000	  -1.245000; % NG
	2	 0.0	 0.0	 3	   0.000000	   0.005882	   0.000000; % NG
	2	 0.0	 0.0	 3	   0.000000	   0.004545	   0.000000; % PEL
	2	 0.0	 0.0	 3	   0.000000	   0.004762	   0.000000; % PEL
	2	 0.0	 0.0	 3	   0.000000	   0.004545	   0.000000; % PEL
	2	 0.0	 0.0	 3	   0.000000	   0.004545	   0.000000; % PEL
	2	 0.0	 0.0	 3	   0.002818	  26.040000	  -1.005000; % COW
	2	 0.0	 0.0	 3	   0.026400	  13.700000	  -1.823000; % NG
	2	 0.0	 0.0	 3	   0.032250	  10.670000	  -5.800000; % NG
	2	 0.0	 0.0	 3	   0.032250	  12.330000	  -5.800000; % NG
	2	 0.0	 0.0	 3	   0.032250	  11.750000	  -5.800000; % COW
	2	 0.0	 0.0	 3	   0.000000	  24.480000	 -76.230000; % COW
	2	 0.0	 0.0	 3	   0.000000	  23.790000	 -76.230000; % NG
	2	 0.0	 0.0	 3	   0.000000	  23.530000	 -76.230000; % NG
	2	 0.0	 0.0	 3	   0.032350	  10.920000	  -2.638000; % NG
	2	 0.0	 0.0	 3	   0.032350	  10.720000	  -2.638000; % COW
	2	 0.0	 0.0	 3	   0.032350	  10.830000	  -2.638000; % COW
	2	 0.0	 0.0	 3	   0.032330	  10.950000	  -2.267000; % NG
	2	 0.0	 0.0	 3	   0.032330	  12.320000	  -2.267000; % NG
	2	 0.0	 0.0	 3	   0.032330	  12.050000	  -2.267000; % NG
	2	 0.0	 0.0	 3	   0.032270	  11.770000	  -5.023000; % NG
	2	 0.0	 0.0	 3	   0.032270	  12.370000	  -5.023000; % NG
	2	 0.0	 0.0	 3	   0.000000	  24.340000	 -247.400000; % NG
	2	 0.0	 0.0	 3	   0.032250	  12.160000	  -5.468000; % NG
	2	 0.0	 0.0	 3	   0.032250	  10.860000	  -5.469000; % COW
	2	 0.0	 0.0	 3	   0.000000	  22.440000	 -54.680000; % NG
	2	 0.0	 0.0	 3	   0.000000	  18.800000	 -34.480000; % NG
	2	 0.0	 0.0	 3	   0.000000	  18.210000	 -34.480000; % NG
	2	 0.0	 0.0	 3	   0.000000	  18.790000	 -34.480000; % NG
	2	 0.0	 0.0	 3	   0.000000	  18.420000	 -27.070000; % NG
	2	 0.0	 0.0	 3	   0.000000	  36.040000	 -68.000000; % PEL
	2	 0.0	 0.0	 3	   0.000000	  33.290000	 -73.730000; % NG
	2	 0.0	 0.0	 3	   0.000000	  31.260000	 -107.200000; % NG
	2	 0.0	 0.0	 3	   0.000000	  18.270000	 -27.070000; % NG
	2	 0.0	 0.0	 3	   0.002830	  26.930000	   0.000000; % COW
	2	 0.0	 0.0	 3	   0.000000	  34.100000	 -36.630000; % NG
	2	 0.0	 0.0	 3	   0.000000	  12.950000	 -190.900000; % NG
	2	 0.0	 0.0	 3	   0.000000	  12.320000	 -201.300000; % NG
	2	 0.0	 0.0	 3	   0.026390	  13.580000	  -2.315000; % NG
	2	 0.0	 0.0	 3	   0.000000	  18.930000	 -31.650000; % PEL
	2	 0.0	 0.0	 3	   0.000000	  17.640000	 -31.650000; % PEL
	2	 0.0	 0.0	 3	   0.000000	  16.960000	 -31.650000; % NG
	2	 0.0	 0.0	 3	   0.000000	  12.200000	 -395.300000; % NG
	2	 0.0	 0.0	 3	   0.000000	  18.260000	 -31.650000; % PEL
	2	 0.0	 0.0	 3	   0.000000	  18.060000	 -31.650000; % NG
	2	 0.0	 0.0	 3	   0.000000	  19.330000	 -31.650000; % PEL
	2	 0.0	 0.0	 3	   0.000000	  17.540000	 -31.650000; % NG
	2	 0.0	 0.0	 3	   0.000000	  18.090000	 -31.650000; % NG
	2	 0.0	 0.0	 3	   0.000000	   0.028990	   0.000000; % PEL
	2	 0.0	 0.0	 3	   0.000000	   0.028990	   0.000000; % PEL
	2	 0.0	 0.0	 3	   0.000000	   0.028990	   0.000000; % PEL
	2	 0.0	 0.0	 3	   0.000000	   0.028990	   0.000000; % PEL
	2	 0.0	 0.0	 3	   0.000000	   0.028990	   0.000000; % NG
	2	 0.0	 0.0	 3	   0.000000	   0.028990	   0.000000; % PEL
	2	 0.0	 0.0	 3	   0.000000	  11.540000	 -888.500000; % COW
	2	 0.0	 0.0	 3	   0.000000	  15.930000	 -158.200000; % NG
	2	 0.0	 0.0	 3	   0.000000	  14.050000	 -158.200000; % NG
	2	 0.0	 0.0	 3	   0.000000	  18.770000	 -132.200000; % COW
	2	 0.0	 0.0	 3	   0.000000	  17.780000	 -132.200000; % PEL
	2	 0.0	 0.0	 3	   0.000000	  17.390000	 -132.200000; % NG
	2	 0.0	 0.0	 3	   0.000000	  18.410000	 -164.700000; % PEL
	2	 0.0	 0.0	 3	   0.000000	   0.009091	   0.000000; % NG
	2	 0.0	 0.0	 3	   0.000000	   0.007692	   0.000000; % NG
	2	 0.0	 0.0	 3	   0.000000	   0.007692	   0.000000; % NG
	2	 0.0	 0.0	 3	   0.000000	  15.610000	 -62.980000; % NG
	2	 0.0	 0.0	 3	   0.000000	  16.750000	 -83.410000; % NG
	2	 0.0	 0.0	 3	   0.000000	  16.170000	 -83.200000; % NG
	2	 0.0	 0.0	 3	   0.000000	  16.670000	 -64.220000; % NG
	2	 0.0	 0.0	 3	   0.000000	  16.220000	 -59.070000; % PEL
	2	 0.0	 0.0	 3	   0.000000	  14.700000	 -58.360000; % NG
	2	 0.0	 0.0	 3	   0.000000	  14.690000	 -55.730000; % NG
	2	 0.0	 0.0	 3	   0.000000	  14.660000	 -55.560000; % NG
	2	 0.0	 0.0	 3	   0.000000	  16.170000	 -55.560000; % COW
	2	 0.0	 0.0	 3	   0.000000	  14.660000	 -55.380000; % NG
	2	 0.0	 0.0	 3	   0.000000	  15.420000	 -54.860000; % NG
	2	 0.0	 0.0	 3	   0.000000	   0.003333	   0.000000; % PEL
	2	 0.0	 0.0	 3	   0.000000	  14.340000	 -36.330000; % PEL
	2	 0.0	 0.0	 3	   0.000000	  14.590000	 -36.330000; % PEL
	2	 0.0	 0.0	 3	   0.000000	  14.850000	 -36.330000; % NG
	2	 0.0	 0.0	 3	   0.000000	  14.710000	 -36.330000; % PEL
	2	 0.0	 0.0	 3	   0.000000	  15.310000	 -36.330000; % COW
	2	 0.0	 0.0	 3	   0.000000	  14.560000	 -36.330000; % NG
	2	 0.0	 0.0	 3	   0.000000	  15.400000	 -36.330000; % NG
	2	 0.0	 0.0	 3	   0.000000	  15.330000	 -51.350000; % NG
	2	 0.0	 0.0	 3	   0.000000	   0.004545	   0.000000; % PEL
	2	 0.0	 0.0	 3	   0.000000	   0.004545	   0.000000; % PEL
	2	 0.0	 0.0	 3	   0.000000	   0.002381	   0.000000; % NG
	2	 0.0	 0.0	 3	   0.000000	   0.004545	   0.000000; % PEL
	2	 0.0	 0.0	 3	   0.000000	   0.004545	   0.000000; % NG
	2	 0.0	 0.0	 3	   0.000000	   0.002381	   0.000000; % NG
	2	 0.0	 0.0	 3	   0.000000	   0.002941	   0.000000; % NG
	2	 0.0	 0.0	 3	   0.000000	  14.710000	 -42.160000; % NG
	2	 0.0	 0.0	 3	   0.000000	  15.210000	 -30.150000; % NG
	2	 0.0	 0.0	 3	   0.000000	  14.940000	 -42.140000; % NG
	2	 0.0	 0.0	 3	   0.000000	  13.760000	 -42.140000; % PEL
	2	 0.0	 0.0	 3	   0.000000	  13.810000	 -42.140000; % NG
	2	 0.0	 0.0	 3	   0.000000	  14.320000	 -20.320000; % PEL
	2	 0.0	 0.0	 3	   0.000000	  15.600000	 -20.320000; % NG
	2	 0.0	 0.0	 3	   0.000000	  12.810000	 -20.320000; % PEL
	2	 0.0	 0.0	 3	   0.000000	  12.750000	 -20.320000; % NG
	2	 0.0	 0.0	 3	   0.000000	   0.007143	   0.000000; % NG
	2	 0.0	 0.0	 3	   0.000000	   0.007143	   0.000000; % NG
	2	 0.0	 0.0	 3	   0.000000	   0.007143	   0.000000; % NG
	2	 0.0	 0.0	 3	   0.000000	   0.014290	   0.000000; % PEL
	2	 0.0	 0.0	 3	   0.032230	  11.190000	  -6.842000; % NG
	2	 0.0	 0.0	 3	   0.032230	  10.820000	  -6.842000; % NG
	2	 0.0	 0.0	 3	   0.032230	  12.490000	  -6.842000; % NG
	2	 0.0	 0.0	 3	   0.001961	  10.370000	   0.000000; % COW
	2	 0.0	 0.0	 3	   0.001961	  11.360000	   0.000000; % COW
	2	 0.0	 0.0	 3	   0.003135	  23.700000	   0.000000; % NG
	2	 0.0	 0.0	 3	   0.002815	  25.560000	   0.000000; % COW
	2	 0.0	 0.0	 3	   0.000000	  34.070000	 -71.090000; % NG
	2	 0.0	 0.0	 3	   0.000000	  33.950000	 -108.300000; % PEL
	2	 0.0	 0.0	 3	   0.000000	  34.250000	 -108.300000; % COW
	2	 0.0	 0.0	 3	   0.000000	  36.620000	 -108.300000; % NG
	2	 0.0	 0.0	 3	   0.000000	  22.670000	 -34.640000; % NG
	2	 0.0	 0.0	 3	   0.000000	  21.760000	 -34.910000; % NG
];

%% branch data
%	fbus	tbus	r	x	b	rateA	rateB	rateC	ratio	angle	status	angmin	angmax
mpc.branch = [
	35250	 35260	 0.000150811	 0.00194905	 0.124388	 1725.0	 1745.0	 1745.0	 0.0	 0.0	 1	 -30.0	 30.0;
	35250	 36002	 0.000832099	 0.00610363	 0.211852	 795.0	 795.0	 795.0	 0.0	 0.0	 1	 -30.0	 30.0;
	35250	 36140	 0.000568878	 0.0095087	 0.621987	 2056.0	 2056.0	 2056.0	 0.0	 0.0	 1	 -30.0	 30.0;
	35250	 36372	 0.000177755	 0.00247061	 0.157639	 1813.0	 1813.0	 1813.0	 0.0	 0.0	 1	 -30.0	 30.0;
	35251	 35650	 0.000761	 0.014125	 0.935594	 2226.0	 2226.0	 2226.0	 0.0	 0.0	 1	 -30.0	 30.0;
	35251	 35799	 0.000182	 0.001332	 0.04622	 1795.0	 1795.0	 1795.0	 0.0	 0.0	 1	 -30.0	 30.0;
	35252	 35927	 9e-05	 0.001157	 0.086753	 2598.0	 2598.0	 2598.0	 0.0	 0.0	 1	 -30.0	 30.0;
	35252	 35953	 0.000504	 0.007407	 0.288028	 2158.0	 2158.0	 2158.0	 0.0	 0.0	 1	 -30.0	 30.0;
	35252	 36583	 0.000318	 0.002334	 0.081	 1695.0	 1695.0	 1695.0	 0.0	 0.0	 1	 -30.0	 30.0;
	35253	 35612	 0.000340265	 0.00249547	 0.0865925	 795.0	 795.0	 795.0	 0.0	 0.0	 1	 -30.0	 30.0;
	35254	 35441	 0.000382434	 0.00638885	 0.417572	 2056.0	 2056.0	 2056.0	 0.0	 0.0	 1	 -30.0	 30.0;
	35254	 36253	 6.38767e-05	 0.0018319	 0.127441	 3031.0	 3031.0	 3031.0	 0.0	 0.0	 1	 -30.0	 30.0;
	35254	 36254	 0.000354548	 0.00260022	 0.090228	 795.0	 795.0	 795.0	 0.0	 0.0	 1	 -30.0	 30.0;
	35255	 36439	 0.000124363	 0.00210112	 0.0833872	 1392.0	 1392.0	 1392.0	 0.0	 0.0	 1	 -30.0	 30.0;
	35255	 36483	 8.59941e-05	 0.00145286	 0.0576583	 1492.0	 1495.0	 1495.0	 0.0	 0.0	 1	 -30.0	 30.0;
	35256	 35555	 0.00234781	 0.0172483	 0.600016	 795.0	 795.0	 795.0	 0.0	 0.0	 1	 -30.0	 30.0;
	35256	 35768	 0.00140625	 0.0103194	 0.35839	 795.0	 795.0	 795.0	 0.0	 0.0	 1	 -30.0	 30.0;
	35257	 35570	 0.00100008	 0.00692294	 0.270403	 795.0	 795.0	 795.0	 0.0	 0.0	 1	 -30.0	 30.0;
	35257	 36471	 0.00366664	 0.0270069	 0.943018	 795.0	 795.0	 795.0	 0.0	 0.0	 1	 -30.0	 30.0;
	35257	 36515	 0.000183274	 0.0012683	 0.0495164	 795.0	 795.0	 795.0	 0.0	 0.0	 1	 -30.0	 30.0;
	35257	 36517	 0.000964483	 0.00707523	 0.245602	 795.0	 795.0	 795.0	 0.0	 0.0	 1	 -30.0	 30.0;
	35258	 36270	 0.000563127	 0.00389733	 0.152178	 795.0	 795.0	 795.0	 0.0	 0.0	 1	 -30.0	 30.0;
	35258	 36282	 0.000178415	 0.00123467	 0.0482035	 795.0	 795.0	 795.0	 0.0	 0.0	 1	 -30.0	 30.0;
	35259	 36363	 0.00142425	 0.0178051	 0.00778544	 388.0	 388.0	 388.0	 0.0	 0.0	 1	 -30.0	 30.0;
	35259	 75803	 0.00379202	 0.028179	 0.0107464	 261.0	 261.0	 261.0	 0.0	 0.0	 1	 -30.0	 30.0;
	35259	 75927	 0.00038155	 0.00530351	 0.00291475	 567.0	 567.0	 567.0	 0.0	 0.0	 1	 -30.0	 30.0;
	35260	 36372	 5.01821e-05	 0.000804285	 0.0364889	 1513.0	 1531.0	 1531.0	 0.0	 0.0	 1	 -30.0	 30.0;
	35261	 35509	 0.015104	 0.154089	 0.354401	 1366.0	 1366.0	 1366.0	 0.0	 0.0	 1	 -30.0	 30.0;
	35261	 36424	 0.008505	 0.053922	 0.113089	 1366.0	 1366.0	 1366.0	 0.0	 0.0	 1	 -30.0	 30.0;
	35262	 35594	 0.000273541	 0.00317949	 0.134706	 1113.0	 1113.0	 1113.0	 0.0	 0.0	 1	 -30.0	 30.0;
	35262	 35602	 0.00029088	 0.00255715	 0.103085	 933.0	 933.0	 933.0	 0.0	 0.0	 1	 -30.0	 30.0;
	35263	 35512	 0.00349689	 0.0259856	 0.0099098	 261.0	 261.0	 261.0	 0.0	 0.0	 1	 -30.0	 30.0;
	35263	 35515	 0.00569399	 0.0227869	 0.00769752	 175.0	 175.0	 175.0	 0.0	 0.0	 1	 -30.0	 30.0;
	35263	 35529	 0.00184376	 0.0199598	 0.00840049	 347.0	 347.0	 347.0	 0.0	 0.0	 1	 -30.0	 30.0;
	35263	 36490	 0.012881	 0.0420154	 0.0111553	 142.0	 142.0	 142.0	 0.0	 0.0	 1	 -30.0	 30.0;
	35263	 36493	 0.016448	 0.038182	 0.011633	 218.0	 218.0	 218.0	 0.0	 0.0	 1	 -30.0	 30.0;
	35264	 36361	 0.00132066	 0.0171893	 0.0383339	 579.0	 579.0	 579.0	 0.0	 0.0	 1	 -30.0	 30.0;
	35264	 75546	 0.000405805	 0.00729515	 0.0146678	 697.0	 697.0	 697.0	 0.0	 0.0	 1	 -30.0	 30.0;
	35264	 75902	 0.00452141	 0.029356	 0.0584947	 366.0	 366.0	 366.0	 0.0	 0.0	 1	 -30.0	 30.0;
	35265	 35266	 1e-05	 6.8e-05	 0.002488	 1795.0	 1795.0	 1795.0	 0.0	 0.0	 1	 -30.0	 30.0;
	35265	 35547	 0.000675777	 0.00711198	 0.29594	 1028.0	 1028.0	 1028.0	 0.0	 0.0	 1	 -30.0	 30.0;
	35266	 35432	 0.000588114	 0.00683769	 0.289806	 1113.0	 1113.0	 1113.0	 0.0	 0.0	 1	 -30.0	 30.0;
	35266	 35664	 0.00107227	 0.00786647	 0.273096	 795.0	 795.0	 795.0	 0.0	 0.0	 1	 -30.0	 30.0;
	35267	 35535	 0.000572299	 0.00639342	 0.235543	 1028.0	 1028.0	 1028.0	 0.0	 0.0	 1	 -30.0	 30.0;
	35267	 36031	 0.00039414	 0.00272765	 0.106498	 795.0	 795.0	 795.0	 0.0	 0.0	 1	 -30.0	 30.0;
	35268	 35806	 0.000359929	 0.004368	 0.18682	 1147.0	 1147.0	 1147.0	 0.0	 0.0	 1	 -30.0	 30.0;
	35268	 36170	 0.00180109	 0.0241358	 0.930807	 1177.0	 1177.0	 1177.0	 0.0	 0.0	 1	 -30.0	 30.0;
	35269	 35602	 0.00517838	 0.0361556	 1.42977	 795.0	 795.0	 795.0	 0.0	 0.0	 1	 -30.0	 30.0;
	35269	 36563	 0.002797	 0.020043	 0.735365	 1295.0	 1295.0	 1295.0	 0.0	 0.0	 1	 -30.0	 30.0;
	35269	 36583	 0.000154	 0.001531	 0.05534	 1288.0	 1288.0	 1288.0	 0.0	 0.0	 1	 -30.0	 30.0;
	35270	 35273	 5.94931e-05	 0.0004363	 0.0151388	 795.0	 795.0	 795.0	 0.0	 0.0	 1	 -30.0	 30.0;
	35270	 36589	 0.00075701	 0.00555263	 0.192716	 795.0	 795.0	 795.0	 0.0	 0.0	 1	 -30.0	 30.0;
	35270	 36590	 2.03418e-05	 0.000783785	 0.0676148	 4547.0	 4547.0	 4547.0	 0.0	 0.0	 1	 -30.0	 30.0;
	35271	 35431	 0.000474531	 0.00339214	 0.124016	 795.0	 795.0	 795.0	 0.0	 0.0	 1	 -30.0	 30.0;
	35271	 35612	 0.00399549	 0.0294537	 1.0297	 795.0	 795.0	 795.0	 0.0	 0.0	 1	 -30.0	 30.0;
	35272	 36006	 0.0119685	 0.0789642	 0.153238	 366.0	 366.0	 366.0	 0.0	 0.0	 1	 -30.0	 30.0;
	35272	 36575	 0.00114468	 0.00772336	 0.0142206	 366.0	 366.0	 366.0	 0.0	 0.0	 1	 -30.0	 30.0;
	35273	 36254	 0.000834446	 0.00596585	 0.218158	 795.0	 795.0	 795.0	 0.0	 0.0	 1	 -30.0	 30.0;
	35274	 36148	 0.0251108	 0.0631343	 0.0163595	 118.0	 118.0	 118.0	 0.0	 0.0	 1	 -30.0	 30.0;
	35274	 36489	 0.047645	 0.122563	 0.0303744	 118.0	 118.0	 118.0	 0.0	 0.0	 1	 -30.0	 30.0;
	35274	 75594	 0.0248513	 0.0576974	 0.0175814	 118.0	 118.0	 118.0	 0.0	 0.0	 1	 -30.0	 30.0;
	35275	 35701	 0.00387771	 0.0160101	 0.00378792	 159.0	 159.0	 159.0	 0.0	 0.0	 1	 -30.0	 30.0;
	35275	 75913	 0.0120306	 0.0658546	 0.0205958	 205.0	 205.0	 205.0	 0.0	 0.0	 1	 -30.0	 30.0;
	35276	 35717	 0.00301914	 0.00700817	 0.00213504	 118.0	 118.0	 118.0	 0.0	 0.0	 1	 -30.0	 30.0;
	35276	 35718	 0.00528406	 0.0132828	 0.00344111	 118.0	 118.0	 118.0	 0.0	 0.0	 1	 -30.0	 30.0;
	35276	 35730	 0.00337672	 0.0118152	 0.00391544	 159.0	 159.0	 159.0	 0.0	 0.0	 1	 -30.0	 30.0;
	35276	 35740	 0.0133914	 0.0359531	 0.00814864	 118.0	 118.0	 118.0	 0.0	 0.0	 1	 -30.0	 30.0;
	35276	 35746	 0.00113186	 0.00396034	 0.00131241	 159.0	 159.0	 159.0	 0.0	 0.0	 1	 -30.0	 30.0;
	35277	 36410	 0.0426584	 0.099079	 0.0302042	 118.0	 118.0	 118.0	 0.0	 0.0	 1	 -30.0	 30.0;
	35277	 75602	 0.0143636	 0.0502653	 0.0166606	 159.0	 159.0	 159.0	 0.0	 0.0	 1	 -30.0	 30.0;
	35278	 36589	 0.000647036	 0.00462556	 0.169125	 795.0	 795.0	 795.0	 0.0	 0.0	 1	 -30.0	 30.0;
	35279	 35435	 0.0188642	 0.0437934	 0.0133434	 118.0	 118.0	 118.0	 0.0	 0.0	 1	 -30.0	 30.0;
	35279	 75649	 0.0122367	 0.0343267	 0.00883596	 128.0	 128.0	 128.0	 0.0	 0.0	 1	 -30.0	 30.0;
	35280	 36523	 0.0137595	 0.0319411	 0.00973149	 118.0	 118.0	 118.0	 0.0	 0.0	 1	 -30.0	 30.0;
	35281	 36032	 0.002243	 0.005814	 0.001759	 228.0	 228.0	 228.0	 0.0	 0.0	 1	 -30.0	 30.0;
	35281	 36419	 0.0173426	 0.0486528	 0.0125245	 128.0	 128.0	 128.0	 0.0	 0.0	 1	 -30.0	 30.0;
	35282	 36300	 0.00204859	 0.0150437	 0.523002	 795.0	 795.0	 795.0	 0.0	 0.0	 1	 -30.0	 30.0;
	35282	 36519	 0.000503418	 0.00369217	 0.128126	 795.0	 795.0	 795.0	 0.0	 0.0	 1	 -30.0	 30.0;
	35283	 36508	 0.0050614	 0.0135881	 0.00307953	 118.0	 118.0	 118.0	 0.0	 0.0	 1	 -30.0	 30.0;
	35283	 36510	 0.000427507	 0.00116391	 0.00025642	 118.0	 118.0	 118.0	 0.0	 0.0	 1	 -30.0	 30.0;
	35284	 35565	 0.00725927	 0.0471538	 0.0940215	 366.0	 366.0	 366.0	 0.0	 0.0	 1	 -30.0	 30.0;
	35284	 36292	 0.00323571	 0.0218348	 0.0402108	 366.0	 366.0	 366.0	 0.0	 0.0	 1	 -30.0	 30.0;
	35285	 36537	 0.0118066	 0.0413111	 0.000855633	 85.0	 85.0	 85.0	 0.0	 0.0	 1	 -30.0	 30.0;
	35285	 36538	 0.0765036	 0.177604	 0.00338214	 59.0	 59.0	 59.0	 0.0	 0.0	 1	 -30.0	 30.0;
	35286	 35939	 0.00524786	 0.0368112	 0.0627045	 366.0	 366.0	 366.0	 0.0	 0.0	 1	 -30.0	 30.0;
	35286	 36495	 0.00293262	 0.019789	 0.0364418	 366.0	 366.0	 366.0	 0.0	 0.0	 1	 -30.0	 30.0;
	35286	 75953	 0.00125009	 0.0152311	 0.0568203	 834.0	 834.0	 834.0	 0.0	 0.0	 1	 -30.0	 30.0;
	35287	 35711	 0.00555785	 0.0194472	 0.00644476	 159.0	 159.0	 159.0	 0.0	 0.0	 1	 -30.0	 30.0;
	35287	 75667	 0.0175592	 0.0572792	 0.0152093	 142.0	 142.0	 142.0	 0.0	 0.0	 1	 -30.0	 30.0;
	35288	 36063	 0.0720318	 0.167221	 0.00318436	 59.0	 59.0	 59.0	 0.0	 0.0	 1	 -30.0	 30.0;
	35288	 36069	 0.116319	 0.352734	 0.00390637	 59.0	 59.0	 59.0	 0.0	 0.0	 1	 -30.0	 30.0;
	35288	 75573	 0.254592	 0.694011	 0.00957051	 59.0	 59.0	 59.0	 0.0	 0.0	 1	 -30.0	 30.0;
	35288	 75660	 0.038692	 0.116462	 0.0022773	 71.0	 71.0	 71.0	 0.0	 0.0	 1	 -30.0	 30.0;
	35288	 75993	 0.128505	 0.298392	 0.00568368	 59.0	 59.0	 59.0	 0.0	 0.0	 1	 -30.0	 30.0;
	35288	 75995	 0.0618213	 0.16598	 0.00235123	 59.0	 59.0	 59.0	 0.0	 0.0	 1	 -30.0	 30.0;
	35290	 75589	 0.0947827	 0.331779	 0.00687542	 80.0	 80.0	 80.0	 0.0	 0.0	 1	 -30.0	 30.0;
	35290	 75797	 0.0336873	 0.140025	 0.00204295	 80.0	 80.0	 80.0	 0.0	 0.0	 1	 -30.0	 30.0;
	35290	 75798	 0.0676824	 0.17543	 0.00331737	 64.0	 64.0	 64.0	 0.0	 0.0	 1	 -30.0	 30.0;
	35292	 36288	 0.000380458	 0.00240968	 0.00504621	 366.0	 366.0	 366.0	 0.0	 0.0	 1	 -30.0	 30.0;
	35293	 35599	 0.000502388	 0.00347689	 0.135757	 795.0	 795.0	 795.0	 0.0	 0.0	 1	 -30.0	 30.0;
	35293	 36002	 0.000351857	 0.00258048	 0.0895429	 795.0	 795.0	 795.0	 0.0	 0.0	 1	 -30.0	 30.0;
	35294	 36592	 0.00741655	 0.0172159	 0.00524493	 118.0	 118.0	 118.0	 0.0	 0.0	 1	 -30.0	 30.0;
	35294	 36594	 0.0183861	 0.0643483	 0.0213312	 166.0	 166.0	 166.0	 0.0	 0.0	 1	 -30.0	 30.0;
	35295	 36144	 0.0259571	 0.0602659	 0.0183644	 118.0	 118.0	 118.0	 0.0	 0.0	 1	 -30.0	 30.0;
	35295	 36149	 0.0104261	 0.0242023	 0.0073735	 118.0	 118.0	 118.0	 0.0	 0.0	 1	 -30.0	 30.0;
	35295	 36488	 0.0302902	 0.0813414	 0.0184408	 121.0	 121.0	 121.0	 0.0	 0.0	 1	 -30.0	 30.0;
	35296	 75590	 0.0115048	 0.0504108	 0.0173434	 185.0	 185.0	 185.0	 0.0	 0.0	 1	 -30.0	 30.0;
	35296	 75982	 0.0344867	 0.103864	 0.0325188	 142.0	 142.0	 142.0	 0.0	 0.0	 1	 -30.0	 30.0;
	35297	 35542	 0.00398823	 0.012004	 0.00375542	 142.0	 142.0	 142.0	 0.0	 0.0	 1	 -30.0	 30.0;
	35297	 35543	 0.0166971	 0.0502628	 0.0157273	 142.0	 142.0	 142.0	 0.0	 0.0	 1	 -30.0	 30.0;
	35297	 35740	 0.0152392	 0.0620221	 0.015114	 159.0	 159.0	 159.0	 0.0	 0.0	 1	 -30.0	 30.0;
	35298	 36161	 0.00590608	 0.0206658	 0.00684861	 159.0	 159.0	 159.0	 0.0	 0.0	 1	 -30.0	 30.0;
	35298	 36167	 0.0178931	 0.0538642	 0.0168547	 142.0	 142.0	 142.0	 0.0	 0.0	 1	 -30.0	 30.0;
	35299	 75699	 0.0082754	 0.0461698	 0.000737035	 96.0	 96.0	 96.0	 0.0	 0.0	 1	 -30.0	 30.0;
	35299	 75724	 0.00158214	 0.00476197	 9.31097e-05	 71.0	 71.0	 71.0	 0.0	 0.0	 1	 -30.0	 30.0;
	35300	 35701	 0.00928843	 0.0215613	 0.00656884	 118.0	 118.0	 118.0	 0.0	 0.0	 1	 -30.0	 30.0;
	35301	 35696	 0.0115294	 0.034704	 0.0108579	 142.0	 142.0	 142.0	 0.0	 0.0	 1	 -30.0	 30.0;
	35302	 36421	 0.016133	 0.048563	 0.015195	 342.0	 342.0	 342.0	 0.0	 0.0	 1	 -30.0	 30.0;
	35302	 75945	 0.008503	 0.037254	 0.012816	 233.0	 233.0	 233.0	 0.0	 0.0	 1	 -30.0	 30.0;
	35303	 35515	 0.0142866	 0.0555866	 0.0148493	 159.0	 159.0	 159.0	 0.0	 0.0	 1	 -30.0	 30.0;
	35303	 35528	 0.00339168	 0.00879014	 0.00265921	 128.0	 128.0	 128.0	 0.0	 0.0	 1	 -30.0	 30.0;
	35303	 35735	 0.0185798	 0.0559321	 0.017502	 142.0	 142.0	 142.0	 0.0	 0.0	 1	 -30.0	 30.0;
	35304	 35597	 0.000239659	 0.00171309	 0.0626254	 795.0	 795.0	 795.0	 0.0	 0.0	 1	 -30.0	 30.0;
	35304	 35988	 0.000186859	 0.00133566	 0.0488273	 795.0	 795.0	 795.0	 0.0	 0.0	 1	 -30.0	 30.0;
	35305	 35669	 0.0044141	 0.0286588	 0.0571044	 366.0	 366.0	 366.0	 0.0	 0.0	 1	 -30.0	 30.0;
	35305	 36292	 0.0174354	 0.120632	 0.214308	 366.0	 366.0	 366.0	 0.0	 0.0	 1	 -30.0	 30.0;
	35305	 75546	 0.00512232	 0.0324551	 0.0680021	 366.0	 366.0	 366.0	 0.0	 0.0	 1	 -30.0	 30.0;
	35306	 35554	 0.00181873	 0.0125284	 0.022117	 366.0	 366.0	 366.0	 0.0	 0.0	 1	 -30.0	 30.0;
	35306	 75953	 0.0109298	 0.0754165	 0.133458	 366.0	 366.0	 366.0	 0.0	 0.0	 1	 -30.0	 30.0;
	35307	 35842	 0.00205558	 0.00618694	 0.00193556	 142.0	 142.0	 142.0	 0.0	 0.0	 1	 -30.0	 30.0;
	35307	 35843	 0.00193977	 0.0078934	 0.0019231	 159.0	 159.0	 159.0	 0.0	 0.0	 1	 -30.0	 30.0;
	35307	 35882	 0.000880613	 0.00342581	 0.000914986	 159.0	 159.0	 159.0	 0.0	 0.0	 1	 -30.0	 30.0;
	35343	 37792	 0.018415	 0.195233	 0.37403	 1373.0	 1373.0	 1373.0	 0.0	 0.0	 1	 -30.0	 30.0;
	35343	 37970	 0.006299	 0.098812	 0.206722	 1340.0	 1340.0	 1340.0	 0.0	 0.0	 1	 -30.0	 30.0;
	35343	 38336	 0.00248	 0.024788	 0.05128	 1373.0	 1373.0	 1373.0	 0.0	 0.0	 1	 -30.0	 30.0;
	35344	 38339	 0.002718	 0.023194	 0.019921	 716.0	 716.0	 716.0	 0.0	 0.0	 1	 -30.0	 30.0;
	35344	 38351	 0.013745	 0.062411	 0.021667	 444.0	 444.0	 444.0	 0.0	 0.0	 1	 -30.0	 30.0;
	35345	 36271	 0.00066	 0.005994	 0.226097	 1732.0	 1732.0	 1732.0	 0.0	 0.0	 1	 -30.0	 30.0;
	35346	 38149	 0.011696	 0.109704	 0.203376	 617.5	 617.5	 617.5	 0.0	 0.0	 1	 -30.0	 30.0;
	35346	 38336	 0.001505	 0.0163382	 0.0320525	 532.0	 532.0	 532.0	 0.0	 0.0	 1	 -30.0	 30.0;
	35347	 35348	 3.8843e-05	 0.0002688	 0.0104942	 795.0	 795.0	 795.0	 0.0	 0.0	 1	 -30.0	 30.0;
	35347	 37765	 0.000491916	 0.0036078	 0.125198	 795.0	 795.0	 795.0	 0.0	 0.0	 1	 -30.0	 30.0;
	35347	 38201	 0.00149714	 0.0103679	 0.40519	 795.0	 795.0	 795.0	 0.0	 0.0	 1	 -30.0	 30.0;
	35347	 38367	 0.001288	 0.009451	 0.328176	 1795.0	 1795.0	 1795.0	 0.0	 0.0	 1	 -30.0	 30.0;
	35349	 37844	 0.029848	 0.081286	 0.017914	 145.0	 145.0	 145.0	 0.0	 0.0	 1	 -30.0	 30.0;
	35349	 38054	 0.00562432	 0.0187625	 0.0047584	 142.0	 142.0	 142.0	 0.0	 0.0	 1	 -30.0	 30.0;
	35349	 38056	 0.00434402	 0.0176771	 0.0043068	 159.0	 159.0	 159.0	 0.0	 0.0	 1	 -30.0	 30.0;
	35349	 38058	 0.00398071	 0.0244597	 0.00894356	 230.0	 230.0	 230.0	 0.0	 0.0	 1	 -30.0	 30.0;
	35349	 38059	 0.0184901	 0.0653669	 0.0147324	 142.0	 142.0	 142.0	 0.0	 0.0	 1	 -30.0	 30.0;
	35350	 38208	 8.60696e-05	 0.000615218	 0.02249	 795.0	 795.0	 795.0	 0.0	 0.0	 1	 -30.0	 30.0;
	35350	 38306	 0.00436624	 0.0304045	 1.19777	 887.0	 887.0	 887.0	 0.0	 0.0	 1	 -30.0	 30.0;
	35351	 37797	 0.000349955	 0.00256653	 0.0890587	 795.0	 795.0	 795.0	 0.0	 0.0	 1	 -30.0	 30.0;
	35351	 38162	 0.00212814	 0.0147484	 0.577004	 795.0	 795.0	 795.0	 0.0	 0.0	 1	 -30.0	 30.0;
	35352	 37765	 0.000705889	 0.00517753	 0.179692	 795.0	 795.0	 795.0	 0.0	 0.0	 1	 -30.0	 30.0;
	35352	 38373	 0.0035758	 0.0256655	 0.943868	 795.0	 795.0	 795.0	 0.0	 0.0	 1	 -30.0	 30.0;
	35353	 37744	 0.00073	 0.00505	 0.1972	 1000.0	 1000.0	 1000.0	 0.0	 0.0	 1	 -30.0	 30.0;
	35353	 38162	 0.00112296	 0.0077742	 0.303689	 795.0	 795.0	 795.0	 0.0	 0.0	 1	 -30.0	 30.0;
	35354	 37918	 0.00116403	 0.0114066	 0.00357281	 293.0	 315.0	 315.0	 0.0	 0.0	 1	 -30.0	 30.0;
	35354	 37919	 0.004835	 0.0169178	 0.00560649	 159.0	 159.0	 159.0	 0.0	 0.0	 1	 -30.0	 30.0;
	35354	 37920	 0.00171076	 0.0127124	 0.00484773	 261.0	 285.0	 285.0	 0.0	 0.0	 1	 -30.0	 30.0;
	35355	 37739	 0.00185053	 0.0129761	 0.0220925	 366.0	 366.0	 366.0	 0.0	 0.0	 1	 -30.0	 30.0;
	35355	 37742	 0.001659	 0.011196	 0.020615	 566.0	 566.0	 566.0	 0.0	 0.0	 1	 -30.0	 30.0;
	35356	 38015	 0.00146864	 0.00902389	 0.00329938	 230.0	 230.0	 230.0	 0.0	 0.0	 1	 -30.0	 30.0;
	35356	 38016	 0.00356704	 0.0219178	 0.00801402	 230.0	 230.0	 230.0	 0.0	 0.0	 1	 -30.0	 30.0;
	35357	 35979	 0.00408161	 0.026499	 0.0527978	 366.0	 366.0	 366.0	 0.0	 0.0	 1	 -30.0	 30.0;
	35357	 35980	 0.00328261	 0.020794	 0.0435551	 366.0	 366.0	 366.0	 0.0	 0.0	 1	 -30.0	 30.0;
	35357	 38131	 0.00370766	 0.0234875	 0.0492	 366.0	 366.0	 366.0	 0.0	 0.0	 1	 -30.0	 30.0;
	35358	 37749	 0.00447905	 0.0246658	 0.00890539	 219.0	 219.0	 219.0	 0.0	 0.0	 1	 -30.0	 30.0;
	35358	 37750	 0.00573206	 0.0200568	 0.0066468	 159.0	 159.0	 159.0	 0.0	 0.0	 1	 -30.0	 30.0;
	35359	 38072	 0.00128874	 0.00921669	 0.337184	 795.0	 795.0	 795.0	 0.0	 0.0	 1	 -30.0	 30.0;
	35359	 38367	 0.00234233	 0.0172079	 0.598603	 795.0	 795.0	 795.0	 0.0	 0.0	 1	 -30.0	 30.0;
	35360	 38080	 0.00990721	 0.0256772	 0.00776821	 128.0	 128.0	 128.0	 0.0	 0.0	 1	 -30.0	 30.0;
	35360	 38322	 0.0478711	 0.144258	 0.0451986	 142.0	 142.0	 142.0	 0.0	 0.0	 1	 -30.0	 30.0;
	35360	 76050	 0.0630452	 0.169463	 0.0384626	 118.0	 118.0	 118.0	 0.0	 0.0	 1	 -30.0	 30.0;
	35361	 35374	 7.22775e-06	 5.30055e-05	 0.00183919	 795.0	 795.0	 795.0	 0.0	 0.0	 1	 -30.0	 30.0;
	35361	 38373	 0.00599417	 0.0419861	 1.66797	 795.0	 795.0	 795.0	 0.0	 0.0	 1	 -30.0	 30.0;
	35362	 76039	 0.00545878	 0.0376174	 0.0664441	 366.0	 366.0	 366.0	 0.0	 0.0	 1	 -30.0	 30.0;
	35362	 76228	 0.00537522	 0.0340587	 0.071366	 366.0	 366.0	 366.0	 0.0	 0.0	 1	 -30.0	 30.0;
	35364	 37792	 0.00518544	 0.0353791	 0.0637366	 366.0	 366.0	 366.0	 0.0	 0.0	 1	 -30.0	 30.0;
	35364	 37837	 0.00395493	 0.0250547	 0.0524847	 366.0	 366.0	 366.0	 0.0	 0.0	 1	 -30.0	 30.0;
	35365	 38325	 0.00596997	 0.0208893	 0.0069227	 159.0	 176.0	 176.0	 0.0	 0.0	 1	 -30.0	 30.0;
	35365	 38376	 0.031122	 0.09372	 0.029339	 238.0	 238.0	 238.0	 0.0	 0.0	 1	 -30.0	 30.0;
	35366	 38283	 0.0264055	 0.0613074	 0.0186819	 118.0	 118.0	 118.0	 0.0	 0.0	 1	 -30.0	 30.0;
	35366	 38285	 0.00778006	 0.0272234	 0.00902204	 164.0	 164.0	 164.0	 0.0	 0.0	 1	 -30.0	 30.0;
	35367	 38126	 0.0396636	 0.119387	 0.0023345	 71.0	 71.0	 71.0	 0.0	 0.0	 1	 -30.0	 30.0;
...